<?xml version="1.0" encoding="UTF-8"?>

<!-- generated on 2024-05-29 19:59:51 by Eclipse SUMO duarouter Version 1.20.0
<configuration xmlns:xsi="http://www.w3.org/2001/XMLSchema-instance" xsi:noNamespaceSchemaLocation="http://sumo.dlr.de/xsd/duarouterConfiguration.xsd">

    <input>
        <net-file value="test.net.xml"/>
        <route-files value="trips.trips.xml"/>
    </input>

    <output>
        <output-file value="rabat.rou.xml"/>
    </output>

    <time>
        <begin value="0"/>
        <end value="500"/>
    </time>

    <report>
        <no-warnings value="true"/>
        <ignore-errors value="true"/>
        <no-step-log value="true"/>
    </report>

</configuration>
-->

<routes xmlns:xsi="http://www.w3.org/2001/XMLSchema-instance" xsi:noNamespaceSchemaLocation="http://sumo.dlr.de/xsd/routes_file.xsd">
    <vehicle id="0" depart="0.00">
        <route edges="4006310#3 4006310#4 4006310#5 4006305#3 4006305#4 198079223#1 198079223#2 729145699 159221429#0 35096685#0 35096685#1 -35096685#1"/>
    </vehicle>
    <vehicle id="1" depart="1.00">
        <route edges="1101346493#1 1101346493#2 309750238#0 309750238#1 309750238#2 309750238#3 966783771#0 966783771#1 966783771#2 966783771#3 1101346492#0 1101346492#1 1101346492#2 1101346492#3 566428686#0 566428686#1 566428686#2 1002115244 8601686#12 1002115243#0 1002115243#1 1002115243#2"/>
    </vehicle>
    <vehicle id="2" depart="2.00">
        <route edges="566428685#16 -566428685#16 -566428685#15 -566428685#14 -566428685#13 4005336#0 4005336#1 4005336#2 4008421#2"/>
    </vehicle>
    <vehicle id="3" depart="3.00">
        <route edges="722479010#0 722479010#1 722479010#2 722479010#3 722479010#4 1097948911 -455786715#5"/>
    </vehicle>
    <vehicle id="4" depart="4.00">
        <route edges="234104711#0 -234104711#0 234789207#2 234789207#3 -4005336#3 -4005336#2 -4005336#1 -4005336#0"/>
    </vehicle>
    <vehicle id="5" depart="5.00">
        <route edges="1002115243#2 566428686#2 566428686#3 566428686#4 566428686#5 566428686#6 566428686#7 566428685#2 566428685#3 566428685#4 566428685#5 566428685#6 566428685#7 566428685#8 566428685#9 566428685#10 566428685#11 566428685#12 566428685#13 566428685#14 610630834#0 610630834#1 610630835 35078770#0 35078770#1"/>
    </vehicle>
    <vehicle id="6" depart="6.00">
        <route edges="-35096685#1 -35096685#0 -159221429#0 729145700 -722479010#1 -722479010#0"/>
    </vehicle>
    <vehicle id="7" depart="7.00">
        <route edges="4006310#7 722479010#3 -4005336#8 -4005336#7 -4005336#6 -4005336#5 -4005336#4 -4005336#3 4005336#3"/>
    </vehicle>
    <vehicle id="8" depart="8.00">
        <route edges="1002115243#2 566428686#2 566428686#3 566428686#4 566428686#5 566428686#6 566428686#7 566428685#2 566428685#3 566428685#4 566428685#5 566428685#6 566428685#7 566428685#8 566428685#9 566428685#10 566428685#11 566428685#12 4005336#0 4005336#1 4005336#2 4005336#3 4005336#4 4005336#5 4006304#6"/>
    </vehicle>
    <vehicle id="9" depart="9.00">
        <route edges="584003961#0 584003961#1 584003961#2 -566428685#9 -566428685#8 -566428685#7 -566428685#6 -566428685#5 8601686#5 8601686#6 8601686#7 8601686#8 8601686#9 8601686#10 8601686#11 8601686#12 8601686#13 8601686#14 966783771#3 1101346492#0 1101346492#1 1101346492#2 1101346492#3 1101346491 -1101346491"/>
    </vehicle>
    <vehicle id="10" depart="10.00">
        <route edges="566428686#9 -566428686#9 -566428686#8 566428685#2 566428685#3 566428685#4 566428685#5 566428685#6 566428685#7 566428685#8 566428685#9 566428685#10 610630842#0 610630842#1 452728849#0 452728849#1"/>
    </vehicle>
    <vehicle id="11" depart="11.00">
        <route edges="152822502 309750238#2 309750238#3 966783771#0 966783771#1 966783771#2 966783771#3 1101346492#0 1101346492#1 1101346492#2 1101346492#3 566428686#0 566428686#1 -566428686#1"/>
    </vehicle>
    <vehicle id="12" depart="12.00">
        <route edges="8601686#2 8601686#3 8601686#4 566428685#5 566428685#6 566428685#7 566428685#8 566428685#9 4006310#0 4006310#1 4006310#2 4006310#3 4006310#4 4006310#5 4006305#3 4006305#4 4006305#5 152804621#3 152804621#4"/>
    </vehicle>
    <vehicle id="13" depart="13.00">
        <route edges="-566428685#10"/>
    </vehicle>
    <vehicle id="14" depart="14.00">
        <route edges="590165485#7 4008421#0 4008421#1 4005336#3 4005336#4 4005336#5 4005336#6 4006305#2"/>
    </vehicle>
    <vehicle id="15" depart="15.00">
        <route edges="584003961#0 584003961#1 584003961#2 566428685#10 566428685#11 566428685#12"/>
    </vehicle>
    <vehicle id="16" depart="16.00">
        <route edges="4005336#4 -4005336#4 -4005336#3 -4005336#2 -4005336#1 -4005336#0 -566428685#12 -566428685#11 -566428685#10 -566428685#9 -566428685#8 -566428685#7 -566428685#6 -566428685#5 8601686#5 8601686#6"/>
    </vehicle>
    <vehicle id="17" depart="17.00">
        <route edges="181033309#5 4008421#1 4005336#3 4005336#4 4005336#5"/>
    </vehicle>
    <vehicle id="20" depart="20.00">
        <route edges="455786715#5 -1097948911 -722479010#4 4005336#9 4005336#10 4005336#11 4005336#12 4005336#13 4005336#14 4005336#15 -4005336#15 -4005336#14 -4005336#13"/>
    </vehicle>
    <vehicle id="21" depart="21.00">
        <route edges="1002115245#1 -566428686#3 1002115244 8601686#12 8601686#13 8601686#14 966783771#3 1101346494#0 1101346494#1"/>
    </vehicle>
    <vehicle id="22" depart="22.00">
        <route edges="-4005336#9 -722479010#3 -722479010#2 -722479010#1 -722479010#0 152822502 309750238#2 309750238#3 152804621#0 152804621#1 152804621#2 152804621#3 152804621#4 152804621#5 152804621#6 152804621#7 152804621#8 152804621#9 152804621#10 -566428685#7 -566428685#6 -566428685#5 8601686#5 8601686#6 8601686#7 8601686#8 8601686#9 1002115245#0"/>
    </vehicle>
    <vehicle id="24" depart="24.00">
        <route edges="4006310#2 4006310#3 4006310#4 4006310#5 4006305#3 4006305#4 198079223#1 198079223#2 729145699 159221429#0"/>
    </vehicle>
    <vehicle id="25" depart="25.00">
        <route edges="181033309#2 181033309#3 181033317#1 4005336#5 4005336#6 4005336#7 4005336#8 -722479010#3"/>
    </vehicle>
    <vehicle id="26" depart="26.00">
        <route edges="1101346492#3 566428686#0 566428686#1 566428686#2 566428686#3 566428686#4 566428686#5 566428686#6 566428686#7 566428685#2 566428685#3 566428685#4 566428685#5 566428685#6 566428685#7 566428685#8 566428685#9 566428685#10 566428685#11 566428685#12 566428685#13 566428685#14 566428685#15 566428685#16 566428685#17 857521304#0 857521304#1"/>
    </vehicle>
    <vehicle id="27" depart="27.00">
        <route edges="4006310#6 4006306#3 -4005336#7 4006305#2 4006305#3"/>
    </vehicle>
    <vehicle id="28" depart="28.00">
        <route edges="-566428686#5 566428686#5 566428686#6 566428686#7 566428685#2 566428685#3 566428685#4 566428685#5 566428685#6 566428685#7 566428685#8 566428685#9 566428685#10 566428685#11"/>
    </vehicle>
    <vehicle id="29" depart="29.00">
        <route edges="-566428686#3 566428686#3 566428686#4 566428686#5 566428686#6 566428686#7 566428685#2 566428685#3 566428685#4 566428685#5 566428685#6 566428685#7 566428685#8 566428685#9 4006310#0 4006310#1 4006310#2 4006310#3 4006310#4 4006310#5 4006310#6 4006306#3 4006306#4 181033309#1 181033309#2"/>
    </vehicle>
    <vehicle id="30" depart="30.00">
        <route edges="966783771#1 966783771#2 966783771#3 1101346492#0 1101346492#1 1101346492#2 1101346492#3 566428686#0 566428686#1 566428686#2 566428686#3 566428686#4 566428686#5 566428686#6 566428686#7 566428685#2 566428685#3 566428685#4 566428685#5 566428685#6 566428685#7 566428685#8 566428685#9 4006310#0 4006310#1 4006310#2 4006310#3 4006310#4 4006310#5 4006310#6 4006306#3 4006306#4 4006306#5 4006306#6"/>
    </vehicle>
    <vehicle id="31" depart="31.00">
        <route edges="4006304#0 -234104711#1 234104712#0 234104712#1 152804621#6 152804621#7 152804621#8 152804621#9 152804621#10 566428685#8 566428685#9 4006310#0 4006310#1 4008421#3 4008421#4"/>
    </vehicle>
    <vehicle id="32" depart="32.00">
        <route edges="590165485#5 590165485#6 590165485#7 4008421#0 181033309#6 181033309#7 -566428685#16 -566428685#15 -566428685#14 -566428685#13 -566428685#12 -566428685#11 -566428685#10 -566428685#9 -566428685#8 566428685#8 566428685#9"/>
    </vehicle>
    <vehicle id="33" depart="33.00">
        <route edges="1002115245#1 566428686#4 566428686#5 566428686#6 566428686#7 566428685#2 566428685#3 566428685#4 566428685#5 566428685#6 566428685#7 566428685#8 566428685#9 566428685#10 566428685#11 566428685#12 4005336#0 4005336#1 -4005336#1"/>
    </vehicle>
    <vehicle id="34" depart="34.00">
        <route edges="152804621#2 152804621#3 152804621#4 152804621#5 152804621#6 152804621#7 152804621#8 152804621#9 152804621#10 -566428685#7 -566428685#6 -566428685#5 8601686#5 8601686#6 8601686#7 8601686#8 8601686#9 8601686#10 8601686#11 8601686#12 8601686#13 8601686#14 966783771#3 1101346492#0 1101346492#1"/>
    </vehicle>
    <vehicle id="35" depart="35.00">
        <route edges="1002115243#0 1002115243#1 1002115243#2 566428686#2 566428686#3 566428686#4 1002115246#1 1002115246#2 8601686#8 8601686#9 8601686#10"/>
    </vehicle>
    <vehicle id="36" depart="36.00">
        <route edges="610630834#1 610630835 35078770#0 35078770#1 -566428685#10 -566428685#9 -566428685#8 152804621#11"/>
    </vehicle>
    <vehicle id="37" depart="37.00">
        <route edges="4008421#0 181033309#6 181033309#7"/>
    </vehicle>
    <vehicle id="38" depart="38.00">
        <route edges="729145700 -722479010#1 -722479010#0 152822502 309750238#2 309750238#3 152804621#0 152804621#1 152804621#2 152804621#3 152804621#4 152804621#5 152804621#6 152804621#7 234789207#0 234789207#1 234789207#2 234789207#3"/>
    </vehicle>
    <vehicle id="39" depart="39.00">
        <route edges="1101346492#2 1101346492#3 566428686#0 566428686#1 566428686#2 566428686#3 566428686#4 566428686#5 566428686#6 566428686#7 566428685#2 566428685#3 566428685#4 8601686#5 8601686#6 1002115247#0 1002115247#1"/>
    </vehicle>
    <vehicle id="40" depart="40.00">
        <route edges="4006304#2 4006304#3 4006304#4 4006310#5 4006310#6 4006310#7 -722479010#2 -722479010#1 -722479010#0 152822502 309750238#2 309750238#3 966783771#0 966783771#1 966783771#2 966783771#3 1101346492#0 1101346492#1 1101346492#2 1101346492#3 1101346491"/>
    </vehicle>
    <vehicle id="41" depart="41.00">
        <route edges="4006305#0 4006305#1 4005336#7 4005336#8 -722479010#3 -722479010#2 -722479010#1 -722479010#0 722479010#0"/>
    </vehicle>
    <vehicle id="42" depart="42.00">
        <route edges="198079222#0 198079222#1 4006305#4 4006305#5 152804621#3 152804621#4 152804621#5 152804621#6 152804621#7 152804621#8 152804621#9 152804621#10 -566428685#7 -566428685#6 -566428685#5 8601686#5 8601686#6 8601686#7 8601686#8 8601686#9 8601686#10 8601686#11 8601686#12 1002115243#0 1002115243#1"/>
    </vehicle>
    <vehicle id="44" depart="44.00">
        <route edges="-566428685#1 -566428685#0 566428685#0 566428685#1 566428685#2 566428685#3 566428685#4 566428685#5 566428685#6 566428685#7 566428685#8 566428685#9 4006310#0 4006310#1 4006310#2 4006310#3 4006310#4 4006310#5 4006310#6 4006310#7 722479010#3 4005336#9 4005336#10 4005336#11 4005336#12 4005336#13 4005336#14 4005336#15 -4005336#15 -4005336#14 -4005336#13"/>
    </vehicle>
    <vehicle id="45" depart="45.00">
        <route edges="-566428685#15 -566428685#14 -566428685#13 -566428685#12 -566428685#11 -566428685#10 4006310#0 4006310#1 4006310#2 4006310#3 4006310#4 4006310#5 4006310#6 4006306#3"/>
    </vehicle>
    <vehicle id="46" depart="46.00">
        <route edges="566428686#5 566428686#6 566428686#7 566428685#2 566428685#3 566428685#4 566428685#5 566428685#6 566428685#7 566428685#8 566428685#9 4006310#0 4006310#1 4006310#2 4006310#3 4006310#4 4006310#5 4006305#3 4006305#4 4006305#5 152804621#3 4006304#0 4006304#1 198079223#0"/>
    </vehicle>
    <vehicle id="47" depart="47.00">
        <route edges="-4005336#4 4005336#4 4005336#5 4006304#6 181033309#3"/>
    </vehicle>
    <vehicle id="48" depart="48.00">
        <route edges="966783771#3 1101346492#0 1101346492#1 1101346492#2 1101346492#3 566428686#0 566428686#1 566428686#2 566428686#3 566428686#4 566428686#5 566428686#6 566428686#7 566428685#2 566428685#3 566428685#4 566428685#5 566428685#6 566428685#7 566428685#8 566428685#9 4006310#0 4006310#1 4006310#2 4006310#3 4006310#4 4006310#5 4006310#6 4006310#7 722479010#3 4005336#9 4005336#10 4005336#11 4005336#12"/>
    </vehicle>
    <vehicle id="49" depart="49.00">
        <route edges="8601686#6 1002115247#0 1002115247#1 566428686#6 566428686#7 566428685#2 566428685#3 566428685#4 566428685#5 566428685#6 566428685#7 566428685#8 566428685#9 566428685#10 566428685#11 566428685#12 4005336#0 4005336#1 4005336#2 4005336#3 234789207#4 234789207#5 590165485#7 590165485#8"/>
    </vehicle>
    <vehicle id="50" depart="50.00">
        <route edges="-159221429#1 35096685#0 35096685#1 455786713#5 455786713#6 309750238#0 309750238#1 309750238#2 309750238#3 152804621#0 152804621#1 152804621#2 152804621#3 152804621#4 152804621#5 152804621#6 152804621#7 152804621#8 152804621#9 152804621#10 -566428685#7 -566428685#6 -566428685#5 -566428685#4 -566428685#3 -566428685#2 -566428685#1 -566428685#0 566428685#0 566428685#1"/>
    </vehicle>
    <vehicle id="51" depart="51.00">
        <route edges="455782035#0 455782035#1 -455782035#1 -455782035#0 35078547#1 35078547#2 584003961#0 584003961#1 584003961#2 4006310#0 4006310#1 4006310#2 4006310#3 4006310#4 4006310#5 4006310#6 4006310#7 722479010#3 4005336#9 4005336#10 4005336#11 4005336#12 4005336#13 4005336#14"/>
    </vehicle>
    <vehicle id="52" depart="52.00">
        <route edges="1101346492#3 566428686#0 566428686#1 566428686#2 566428686#3 566428686#4 566428686#5 566428686#6 566428686#7 566428685#2 566428685#3 566428685#4 566428685#5 566428685#6 566428685#7 566428685#8 566428685#9 4006310#0"/>
    </vehicle>
    <vehicle id="53" depart="53.00">
        <route edges="-566428685#15 -566428685#14 -566428685#13 -566428685#12 -566428685#11 -566428685#10 4006310#0 4006310#1 4006310#2 4006310#3 4006310#4 4006310#5 4006305#3 4006305#4 4006305#5 152804621#3 152804621#4 152804621#5 152804621#6 152804621#7 234789207#0 234789207#1 234104711#0"/>
    </vehicle>
    <vehicle id="54" depart="54.00">
        <route edges="234789207#5 590165485#7 4008421#0 181033309#6 181033309#7 -566428685#16 -566428685#15 -566428685#14 -566428685#13 -566428685#12 -566428685#11 -566428685#10 -566428685#9 -566428685#8 -566428685#7 -566428685#6 -566428685#5 8601686#5 8601686#6 8601686#7 8601686#8 8601686#9 8601686#10 8601686#11 8601686#12 8601686#13"/>
    </vehicle>
    <vehicle id="55" depart="55.00">
        <route edges="610630834#1 610630835 35078770#0 35078770#1 -566428685#10 -566428685#9 -566428685#8 -566428685#7 -566428685#6 -566428685#5 8601686#5 8601686#6 8601686#7 8601686#8 8601686#9 8601686#10 8601686#11 8601686#12 8601686#13 8601686#14 966783771#3 1101346492#0 1101346492#1 1101346492#2 1101346492#3 1101346491"/>
    </vehicle>
    <vehicle id="56" depart="56.00">
        <route edges="35096685#1 455786713#5 455786713#6 309750238#0 309750238#1 309750238#2 309750238#3 152804621#0 152804621#1 152804621#2 152804621#3 152804621#4 152804621#5 152804621#6 152804621#7 152804621#8 152804621#9 152804621#10 -566428685#7 -566428685#6 -566428685#5 -566428685#4 -566428685#3 -566428685#2 -566428686#7"/>
    </vehicle>
    <vehicle id="57" depart="57.00">
        <route edges="729145700 -722479010#1 -722479010#0 152822502 309750238#2 309750238#3 966783771#0 966783771#1 966783771#2 966783771#3 1101346492#0 1101346492#1 1101346492#2 1101346492#3 609299335#0 609299335#1"/>
    </vehicle>
    <vehicle id="58" depart="58.00">
        <route edges="152804621#10 566428685#8 566428685#9 4006310#0 4006310#1 4006310#2 4006310#3 4006310#4 4006310#5 4006310#6 4006306#3 4006306#4 4006306#5 4006306#6"/>
    </vehicle>
    <vehicle id="59" depart="59.00">
        <route edges="4006306#2 4006310#7 -722479010#2 -722479010#1 -722479010#0 152822502 309750238#2 309750238#3 966783771#0 966783771#1 966783771#2 966783771#3 1101346492#0 1101346492#1 1101346492#2 1101346492#3 566428686#0 566428686#1 -566428686#1 -566428686#0"/>
    </vehicle>
    <vehicle id="60" depart="60.00">
        <route edges="566428685#8 566428685#9 4006310#0 4006310#1 4006310#2 4006310#3 4006310#4 4006310#5 4006310#6 4006310#7 722479010#3 4005336#9 4005336#10 4005336#11 4005336#12 4005336#13 4005336#14 4005336#15"/>
    </vehicle>
    <vehicle id="62" depart="62.00">
        <route edges="-1097948911 181033309#0 181033309#1 181033309#2 181033309#3 181033309#4 181033309#5 181033309#6 181033309#7 -566428685#16 -566428685#15 -566428685#14 -566428685#13 -566428685#12 -566428685#11 -566428685#10 -566428685#9 -566428685#8 152804621#11 152804621#12 152804621#13 152804621#14"/>
    </vehicle>
    <vehicle id="65" depart="65.00">
        <route edges="152804621#13 152804621#14 35078547#0 35078547#1 35078547#2 584003961#0 584003961#1 584003961#2 566428685#10 566428685#11 566428685#12 4005336#0 4005336#1 4005336#2 4005336#3 -4005336#3"/>
    </vehicle>
    <vehicle id="66" depart="66.00">
        <route edges="610630835 35078770#0 35078770#1 -566428685#10 -566428685#9 -566428685#8 -566428685#7 -566428685#6 -566428685#5 8601686#5 8601686#6 8601686#7 8601686#8 8601686#9 8601686#10 8601686#11"/>
    </vehicle>
    <vehicle id="67" depart="67.00">
        <route edges="-455782035#1 -455782035#0 35078547#1"/>
    </vehicle>
    <vehicle id="68" depart="68.00">
        <route edges="-4005336#6 -4005336#5 -4005336#4 -4005336#3 -4005336#2 -4005336#1 -4005336#0 -566428685#12 -566428685#11 -566428685#10 -566428685#9 -566428685#8 -566428685#7 -566428685#6 -566428685#5 566428685#5"/>
    </vehicle>
    <vehicle id="69" depart="69.00">
        <route edges="566428685#9 -566428685#9 -566428685#8 -566428685#7 -566428685#6 -566428685#5 -566428685#4 -566428685#3"/>
    </vehicle>
    <vehicle id="70" depart="70.00">
        <route edges="35078547#1 35078547#2 584003961#0 584003961#1 584003961#2 566428685#10 566428685#11 566428685#12 4005336#0 4005336#1 4005336#2 4005336#3 4005336#4"/>
    </vehicle>
    <vehicle id="71" depart="71.00">
        <route edges="1101346492#2 1101346492#3 609299335#0 609299335#1"/>
    </vehicle>
    <vehicle id="72" depart="72.00">
        <route edges="234104711#0 234104711#1 4006304#1 198079223#0 198079223#1 198079223#2 722479010#1 722479010#2 722479010#3 -722479010#3"/>
    </vehicle>
    <vehicle id="73" depart="73.00">
        <route edges="4005336#5 -4005336#5 -4005336#4 -4005336#3 -4005336#2 -4005336#1 -4005336#0 -566428685#12 -566428685#11 566428685#11 566428685#12"/>
    </vehicle>
    <vehicle id="74" depart="74.00">
        <route edges="-722479010#2 -722479010#1 -722479010#0 152822502 309750238#2 309750238#3 152804621#0 152804621#1 152804621#2 152804621#3 152804621#4 152804621#5 152804621#6 152804621#7 152804621#8 152804621#9 152804621#10 152804621#11"/>
    </vehicle>
    <vehicle id="75" depart="75.00">
        <route edges="966783771#3 1101346492#0 1101346492#1 1101346492#2 1101346492#3 566428686#0 566428686#1 566428686#2 566428686#3 566428686#4 566428686#5 566428686#6 566428686#7 566428685#2 566428685#3 566428685#4 566428685#5 566428685#6 566428685#7 566428685#8 566428685#9 4006310#0 4006310#1 4006310#2"/>
    </vehicle>
    <vehicle id="76" depart="76.00">
        <route edges="234789207#0 234789207#1 234789207#2 234789207#3 -4005336#3 -4005336#2 -4005336#1 -4005336#0 4005336#0 4005336#1"/>
    </vehicle>
    <vehicle id="77" depart="77.00">
        <route edges="-566428685#2 566428685#2 566428685#3 566428685#4 8601686#5 8601686#6 8601686#7 8601686#8 8601686#9 8601686#10 8601686#11 8601686#12 1002115243#0 1002115243#1 1002115243#2"/>
    </vehicle>
    <vehicle id="78" depart="78.00">
        <route edges="152804621#9 152804621#10 566428685#8 566428685#9 4006310#0 4006310#1 4006310#2 4006310#3 4006310#4 4006304#5"/>
    </vehicle>
    <vehicle id="79" depart="79.00">
        <route edges="1002115245#1 -566428686#3 1002115244 8601686#12 1002115243#0 1002115243#1"/>
    </vehicle>
    <vehicle id="80" depart="80.00">
        <route edges="-4005336#6 4005336#6 4005336#7 4006306#4"/>
    </vehicle>
    <vehicle id="81" depart="81.00">
        <route edges="1002115245#1 566428686#4 566428686#5 566428686#6 566428686#7 566428685#2 566428685#3 566428685#4 566428685#5 566428685#6 566428685#7 566428685#8 566428685#9 4006310#0 4006310#1 4006310#2 4006310#3 4006310#4 4006310#5 4006310#6 4006310#7 -722479010#2 722479010#2"/>
    </vehicle>
    <vehicle id="83" depart="83.00">
        <route edges="1002115246#2 8601686#8 8601686#9 1002115245#0 1002115245#1 566428686#4 566428686#5 566428686#6 566428686#7 566428685#2 566428685#3 566428685#4 566428685#5 566428685#6 566428685#7 566428685#8 566428685#9 566428685#10 566428685#11 566428685#12 4005336#0 4005336#1 4005336#2 4005336#3 234789207#4 234789207#5 590165485#7 4008421#0"/>
    </vehicle>
    <vehicle id="84" depart="84.00">
        <route edges="1002115243#0 1002115243#1 1002115243#2 566428686#2 566428686#3 566428686#4 566428686#5 566428686#6 566428686#7 566428685#2 566428685#3 566428685#4 -566428685#4"/>
    </vehicle>
    <vehicle id="85" depart="85.00">
        <route edges="8601686#1 8601686#2 8601686#3 8601686#4 566428685#5 566428685#6 566428685#7 566428685#8 566428685#9 4006310#0 4006310#1 4006310#2 4006310#3 4006310#4 4006310#5 4006305#3 4006305#4 4006305#5 152804621#3 4006304#0"/>
    </vehicle>
    <vehicle id="86" depart="86.00">
        <route edges="35078547#0 35078547#1 35078547#2 584003961#0 584003961#1 584003961#2 -566428685#9 -566428685#8 -566428685#7 -566428685#6 -566428685#5 -566428685#4 -566428685#3 -566428685#2 566428686#8 566428686#9 566428686#10"/>
    </vehicle>
    <vehicle id="87" depart="87.00">
        <route edges="584003961#0 -584003961#0"/>
    </vehicle>
    <vehicle id="88" depart="88.00">
        <route edges="-566428685#11 -566428685#10 4006310#0 4006310#1 4006310#2 4006310#3 4006310#4 4006310#5 4006305#3 4006305#4 198079223#1 198079223#2"/>
    </vehicle>
    <vehicle id="89" depart="89.00">
        <route edges="234104711#0 234104711#1 4006304#1 198079223#0 198079223#1 198079223#2 729145699 159221429#0 35096685#0 35096685#1 455786713#5 455786713#6 309750238#0"/>
    </vehicle>
    <vehicle id="90" depart="90.00">
        <route edges="566428685#14 -566428685#14 -566428685#13 4005336#0 4005336#1 4005336#2 4005336#3 234789207#4 181033309#5 4008421#1"/>
    </vehicle>
    <vehicle id="91" depart="91.00">
        <route edges="966783771#0 966783771#1 966783771#2 966783771#3 1101346492#0 1101346492#1 1101346492#2 1101346492#3 566428686#0 566428686#1 566428686#2 566428686#3 566428686#4 566428686#5 566428686#6 566428686#7 566428685#2 566428685#3 566428685#4 566428685#5 566428685#6 566428685#7 566428685#8 566428685#9 566428685#10 -566428685#10"/>
    </vehicle>
    <vehicle id="92" depart="92.00">
        <route edges="198079222#1 4006305#4 4006305#5 152804621#3 152804621#4 152804621#5"/>
    </vehicle>
    <vehicle id="94" depart="94.00">
        <route edges="-584003961#1 584003961#1 584003961#2 4006310#0 4006310#1 4006310#2 4006310#3 4006310#4 4006310#5 4006305#3 4006305#4 4006305#5 152804621#3 152804621#4 152804621#5 152804621#6 152804621#7 234789207#0"/>
    </vehicle>
    <vehicle id="97" depart="97.00">
        <route edges="234789207#2 234789207#3 234789207#4 234789207#5 590165485#7 590165485#8"/>
    </vehicle>
    <vehicle id="98" depart="98.00">
        <route edges="4005336#8 4005336#9 4005336#10 4005336#11 4005336#12 4005336#13 4005336#14 4005336#15 -4005336#15 -4005336#14"/>
    </vehicle>
    <vehicle id="100" depart="100.00">
        <route edges="8601686#5 8601686#6 1002115247#0 1002115247#1 566428686#6 566428686#7 566428685#2 566428685#3 566428685#4 566428685#5 566428685#6 566428685#7 566428685#8 566428685#9 566428685#10 566428685#11 566428685#12 566428685#13 566428685#14 566428685#15 566428685#16 566428685#17 857521304#0 857521304#1 857521304#2 729978622#0 729978622#1"/>
    </vehicle>
    <vehicle id="101" depart="101.00">
        <route edges="590165485#7 4008421#0 181033309#6 181033309#7 -566428685#16 -566428685#15 -566428685#14 -566428685#13 -566428685#12 -566428685#11 -566428685#10 -566428685#9 -566428685#8 -566428685#7 -566428685#6 -566428685#5 8601686#5 8601686#6 8601686#7 8601686#8 8601686#9 1002115245#0 1002115245#1 -566428686#3"/>
    </vehicle>
    <vehicle id="102" depart="102.00">
        <route edges="35078756#1 -455782035#1 -455782035#0 35078547#1 35078547#2 584003961#0 584003961#1 584003961#2 4006310#0 4006310#1 4006310#2 4006310#3 4006310#4 4006310#5 4006310#6 4006310#7 722479010#3 722479010#4 -722479010#4"/>
    </vehicle>
    <vehicle id="103" depart="103.00">
        <route edges="198079222#0 198079222#1 198079222#2 198079222#3 4006304#3 4006304#4 4006304#5 -4005336#5 -4005336#4"/>
    </vehicle>
    <vehicle id="104" depart="104.00">
        <route edges="181033309#5 181033309#6 181033309#7 -566428685#16 -566428685#15 -566428685#14 -566428685#13 -566428685#12 -566428685#11 -566428685#10 -566428685#9 -566428685#8 -566428685#7 -566428685#6 -566428685#5 8601686#5 8601686#6 8601686#7 8601686#8 8601686#9"/>
    </vehicle>
    <vehicle id="105" depart="105.00">
        <route edges="1101346492#2 1101346492#3 566428686#0 566428686#1"/>
    </vehicle>
    <vehicle id="106" depart="106.00">
        <route edges="234789207#5 590165485#7 4008421#0 4008421#1 4008421#2 4006310#2 4006310#3 4006310#4 4006310#5 4006305#3 4006305#4 4006305#5 152804621#3 4006304#0 4006304#1 198079223#0"/>
    </vehicle>
    <vehicle id="107" depart="107.00">
        <route edges="8601686#2 8601686#3 8601686#4 566428685#5 566428685#6 566428685#7 566428685#8 566428685#9 4006310#0 4006310#1 4006310#2 4006310#3 4006310#4 4006310#5 4006310#6 4006310#7 -722479010#2 -722479010#1 -722479010#0 152822502 309750238#2 309750238#3 966783771#0 966783771#1 966783771#2"/>
    </vehicle>
    <vehicle id="108" depart="108.00">
        <route edges="4006304#0 4006304#1 198079223#0 198079223#1 198079223#2 729145699 159221429#0 35096685#0 35096685#1 455786713#5 455786713#6"/>
    </vehicle>
    <vehicle id="109" depart="109.00">
        <route edges="-566428686#10 -566428686#9 -566428686#8 566428685#2 566428685#3 566428685#4 566428685#5 566428685#6 566428685#7 566428685#8 566428685#9 566428685#10 566428685#11 566428685#12 4005336#0 4005336#1 4005336#2 4005336#3 234789207#4 234789207#5 590165485#7 590165485#8 1277803631#0"/>
    </vehicle>
    <vehicle id="110" depart="110.00">
        <route edges="8601686#5 8601686#6 1002115247#0 1002115247#1 566428686#6 566428686#7 566428685#2 566428685#3 566428685#4 566428685#5 566428685#6 566428685#7 566428685#8 566428685#9 4006310#0 4006310#1 4006310#2 4006310#3 4006310#4 4006310#5 4006305#3 198079222#2 198079222#3 4006304#3"/>
    </vehicle>
    <vehicle id="111" depart="111.00">
        <route edges="4005336#6 -4005336#6 -4005336#5 -4005336#4 -4005336#3 -4005336#2 -4005336#1 -4005336#0 566428685#13 566428685#14 566428685#15 566428685#16 566428685#17"/>
    </vehicle>
    <vehicle id="112" depart="112.00">
        <route edges="-4005336#2 4005336#2 4008421#2 4006310#2 4006310#3 4006310#4 4006310#5 4006305#3 198079222#2 198079222#3 4006304#3 4006304#4"/>
    </vehicle>
    <vehicle id="113" depart="113.00">
        <route edges="35096685#1 -35096685#1 -35096685#0 -159221429#0 729145700 722479010#2 722479010#3 722479010#4 181033309#0 181033309#1 181033309#2 4006304#7 590165485#5"/>
    </vehicle>
    <vehicle id="115" depart="115.00">
        <route edges="-4005336#9 -722479010#3 -722479010#2 -722479010#1 -722479010#0 152822502 309750238#2 309750238#3 152804621#0 152804621#1 152804621#2 152804621#3 152804621#4 152804621#5 152804621#6 152804621#7 152804621#8 152804621#9 152804621#10 -566428685#7 -566428685#6 -566428685#5 -566428685#4 -566428685#3 -566428685#2 566428686#8 566428686#9 -566428686#9"/>
    </vehicle>
    <vehicle id="116" depart="116.00">
        <route edges="4006305#3 198079222#2 198079222#3 4006304#3 4006304#4 4006304#5 -4005336#5 -4005336#4 -4005336#3 4008421#2"/>
    </vehicle>
    <vehicle id="117" depart="117.00">
        <route edges="1002115246#2 8601686#8 8601686#9 1002115245#0 1002115245#1 566428686#4 566428686#5 566428686#6 566428686#7 566428685#2 566428685#3 566428685#4 566428685#5 566428685#6 566428685#7 566428685#8 566428685#9 566428685#10 566428685#11 566428685#12 566428685#13 566428685#14 566428685#15 566428685#16 566428685#17 -566428685#17"/>
    </vehicle>
    <vehicle id="118" depart="118.00">
        <route edges="610630844#1 590165485#3 590165485#4 590165485#5 590165485#6 590165485#7 4008421#0 181033309#6 181033309#7 -566428685#16 -566428685#15 -566428685#14 -566428685#13 -566428685#12 -566428685#11 -566428685#10 -566428685#9 -566428685#8 -566428685#7 -566428685#6 -566428685#5 8601686#5 8601686#6 1002115247#0"/>
    </vehicle>
    <vehicle id="119" depart="119.00">
        <route edges="4006305#3 4006305#4 198079223#1 198079223#2 -722479010#0 152822502 309750238#2 309750238#3 152804621#0 152804621#1 4006306#0"/>
    </vehicle>
    <vehicle id="120" depart="120.00">
        <route edges="198079223#2 722479010#1 198079222#0 198079222#1 198079222#2 198079222#3 4006304#3 4006304#4"/>
    </vehicle>
    <vehicle id="121" depart="121.00">
        <route edges="4005336#13 4005336#14 4005336#15 -4005336#15 -4005336#14 -4005336#13 455786713#3 455786713#4 455786713#5 455786713#6 309750238#0 309750238#1 309750238#2 309750238#3 152804621#0 152804621#1 152804621#2 152804621#3 152804621#4 152804621#5 152804621#6 152804621#7 152804621#8 152804621#9 152804621#10 566428685#8 566428685#9 566428685#10 566428685#11 566428685#12 566428685#13 566428685#14 566428685#15 566428685#16 566428685#17 857521304#0"/>
    </vehicle>
    <vehicle id="122" depart="122.00">