<?xml version="1.0" encoding="UTF-8"?>

<!-- generated on 2024-05-29 01:39:42 by Eclipse SUMO netedit Version 1.20.0
-->

<routes xmlns:xsi="http://www.w3.org/2001/XMLSchema-instance" xsi:noNamespaceSchemaLocation="http://sumo.dlr.de/xsd/routes_file.xsd">
    <!-- VTypes -->
    <vType id="DEFAULT_VEHTYPE" vClass="hov"/>
    <vType id="Truck" length="7.00"/>
    <!-- Routes -->
    <route id="r_0" edges="-4005336#6 -4005336#5 -4005336#4 234789207#4 234789207#5 590165485#7 4008421#0 4008421#1 4008421#2 4008421#3 4008421#4"/>
    <!-- Vehicles, persons and containers (sorted by depart) -->
    <trip id="t_0" depart="0.00" from="198079223#0" to="181033309#0"/>
    <vehicle id="v_0" depart="0.00" route="r_0"/>
</routes>
