<?xml version="1.0" encoding="UTF-8"?>

<!-- generated on 2024-05-29 19:59:28 by Eclipse SUMO netedit Version 1.20.0
<configuration xmlns:xsi="http://www.w3.org/2001/XMLSchema-instance" xsi:noNamespaceSchemaLocation="http://sumo.dlr.de/xsd/neteditConfiguration.xsd">

    <input>
        <sumo-net-file value="C:\Users\aitab\Traffic-Light-Management-system-using-RL-and-SUMO\maps\test.net.xml"/>
    </input>

    <output>
        <output-file value="C:\Users\aitab\Traffic-Light-Management-system-using-RL-and-SUMO\maps\test.net.xml"/>
    </output>

    <processing>
        <geometry.min-radius.fix.railways value="false"/>
        <geometry.max-grade.fix value="false"/>
        <offset.disable-normalization value="true"/>
        <lefthand value="0"/>
    </processing>

    <junctions>
        <no-turnarounds value="true"/>
        <junctions.corner-detail value="5"/>
        <junctions.limit-turn-speed value="5.50"/>
        <rectangular-lane-cut value="0"/>
    </junctions>

    <pedestrian>
        <walkingareas value="0"/>
    </pedestrian>

</configuration>
-->

<net version="1.20" junctionCornerDetail="5" limitTurnSpeed="5.50" xmlns:xsi="http://www.w3.org/2001/XMLSchema-instance" xsi:noNamespaceSchemaLocation="http://sumo.dlr.de/xsd/net_file.xsd">

    <location netOffset="-697259.85,-3762255.42" convBoundary="1211.96,1107.79,1945.64,2529.94" origBoundary="-6.864575,33.982360,-6.830706,34.018275" projParameter="+proj=utm +zone=29 +ellps=WGS84 +datum=WGS84 +units=m +no_defs"/>

    <type id="highway.footway" priority="1" numLanes="1" speed="2.78" allow="pedestrian" oneway="1" width="2.00"/>
    <type id="highway.primary" priority="12" numLanes="2" speed="27.78" disallow="tram rail_urban rail rail_electric rail_fast ship container cable_car subway aircraft wheelchair scooter drone" oneway="0"/>
    <type id="highway.residential" priority="3" numLanes="1" speed="13.89" disallow="tram rail_urban rail rail_electric rail_fast ship container cable_car subway aircraft wheelchair scooter drone" oneway="0"/>
    <type id="highway.secondary" priority="11" numLanes="1" speed="27.78" disallow="tram rail_urban rail rail_electric rail_fast ship container cable_car subway aircraft wheelchair scooter drone" oneway="0"/>
    <type id="highway.secondary_link" priority="6" numLanes="1" speed="22.22" disallow="tram rail_urban rail rail_electric rail_fast ship container cable_car subway aircraft wheelchair scooter drone" oneway="0"/>
    <type id="highway.tertiary" priority="10" numLanes="1" speed="22.22" disallow="tram rail_urban rail rail_electric rail_fast ship container cable_car subway aircraft wheelchair scooter drone" oneway="0"/>
    <type id="highway.tertiary_link" priority="5" numLanes="1" speed="22.22" disallow="tram rail_urban rail rail_electric rail_fast ship container cable_car subway aircraft wheelchair scooter drone" oneway="0"/>
    <type id="railway.tram" priority="17" numLanes="1" speed="13.89" allow="tram" oneway="1"/>

    <edge id=":10078619012_0" function="internal">
        <lane id=":10078619012_0_0" index="0" allow="tram" speed="13.89" length="14.90" shape="1861.31,1924.85 1860.73,1921.17 1860.00,1917.52 1859.13,1913.91 1858.10,1910.32"/>
    </edge>
    <edge id=":10078619012_1" function="internal">
        <lane id=":10078619012_1_0" index="0" disallow="pedestrian tram rail_urban rail rail_electric rail_fast ship container cable_car subway aircraft wheelchair scooter drone" speed="14.49" length="10.16" shape="1866.35,1916.25 1864.37,1918.81 1862.69,1920.31 1860.67,1921.38 1857.65,1922.62"/>
        <lane id=":10078619012_1_1" index="1" disallow="pedestrian tram rail_urban rail rail_electric rail_fast ship container cable_car subway aircraft wheelchair scooter drone" speed="13.92" length="10.16" shape="1864.19,1913.79 1862.36,1916.15 1860.85,1917.57 1859.01,1918.58 1856.24,1919.74"/>
        <lane id=":10078619012_1_2" index="2" disallow="pedestrian tram rail_urban rail rail_electric rail_fast ship container cable_car subway aircraft wheelchair scooter drone" speed="13.32" length="10.16" shape="1862.02,1911.33 1860.36,1913.50 1859.00,1914.83 1857.34,1915.79 1854.82,1916.86"/>
    </edge>
    <edge id=":10078622317_0" function="internal">
        <lane id=":10078622317_0_0" index="0" allow="tram" speed="13.89" length="5.09" shape="1813.09,1872.94 1808.44,1870.87"/>
    </edge>
    <edge id=":10078622318_0" function="internal">
        <lane id=":10078622318_0_0" index="0" allow="tram" speed="13.89" length="14.51" shape="1834.77,1883.99 1831.63,1882.07 1828.52,1880.29 1825.36,1878.62 1822.04,1877.03"/>
    </edge>
    <edge id=":10078622318_1" function="internal">
        <lane id=":10078622318_1_0" index="0" disallow="pedestrian tram rail_urban rail rail_electric rail_fast ship container cable_car subway aircraft wheelchair scooter drone" speed="21.95" length="4.92" shape="1824.80,1881.33 1824.85,1880.00 1824.90,1879.07 1825.08,1878.18 1825.51,1876.93"/>
        <lane id=":10078622318_1_1" index="1" disallow="pedestrian tram rail_urban rail rail_electric rail_fast ship container cable_car subway aircraft wheelchair scooter drone" speed="24.31" length="4.92" shape="1828.00,1881.50 1828.11,1879.87 1828.30,1878.76 1828.64,1877.69 1829.23,1876.16"/>
        <lane id=":10078622318_1_2" index="2" disallow="pedestrian tram rail_urban rail rail_electric rail_fast ship container cable_car subway aircraft wheelchair scooter drone" speed="22.49" length="4.92" shape="1831.19,1881.67 1831.30,1880.28 1831.47,1879.34 1831.78,1878.42 1832.29,1877.12"/>
    </edge>
    <edge id=":10078622330_0" function="internal">
        <lane id=":10078622330_0_0" index="0" disallow="tram rail_urban rail rail_electric rail_fast ship container cable_car subway aircraft wheelchair scooter drone" speed="13.89" length="1.14" shape="1932.41,2305.97 1931.37,2305.51"/>
    </edge>
    <edge id=":10078622330_1" function="internal">
        <lane id=":10078622330_1_0" index="0" disallow="tram rail_urban rail rail_electric rail_fast ship container cable_car subway aircraft wheelchair scooter drone" speed="13.89" length="1.03" shape="1932.68,2302.59 1933.62,2303.01"/>
    </edge>
    <edge id=":10078622334_0" function="internal">
        <lane id=":10078622334_0_0" index="0" allow="tram" speed="13.89" length="5.25" shape="1858.70,1935.44 1857.89,1930.26"/>
    </edge>
    <edge id=":10095156976_0" function="internal">
        <lane id=":10095156976_0_0" index="0" allow="tram" speed="13.89" length="5.23" shape="1862.74,1934.49 1861.91,1929.33"/>
    </edge>
    <edge id=":10095156977_0" function="internal">
        <lane id=":10095156977_0_0" index="0" allow="tram" speed="13.89" length="5.10" shape="1814.54,1869.43 1809.89,1867.35"/>
    </edge>
    <edge id=":11455031890_0" function="internal">
        <lane id=":11455031890_0_0" index="0" disallow="tram rail_urban rail rail_electric rail_fast ship container cable_car subway aircraft wheelchair scooter drone" speed="13.89" length="0.30" shape="1615.78,1994.01 1615.51,1993.88"/>
        <lane id=":11455031890_0_1" index="1" disallow="tram rail_urban rail rail_electric rail_fast ship container cable_car subway aircraft wheelchair scooter drone" speed="13.89" length="0.30" shape="1617.11,1991.10 1616.84,1990.97"/>
    </edge>
    <edge id=":11455031894_0" function="internal">
        <lane id=":11455031894_0_0" index="0" disallow="tram rail_urban rail rail_electric rail_fast ship container cable_car subway aircraft wheelchair scooter drone" speed="13.89" length="0.25" shape="1593.38,2000.28 1593.26,2000.55"/>
        <lane id=":11455031894_0_1" index="1" disallow="tram rail_urban rail rail_electric rail_fast ship container cable_car subway aircraft wheelchair scooter drone" speed="13.89" length="0.25" shape="1590.42,1999.05 1590.34,1999.23"/>
    </edge>
    <edge id=":11836845443_0" function="internal">
        <lane id=":11836845443_0_0" index="0" disallow="pedestrian tram rail_urban rail rail_electric rail_fast ship container cable_car subway aircraft wheelchair scooter drone" speed="27.78" length="0.29" shape="1816.08,1740.08 1816.04,1739.84"/>
        <lane id=":11836845443_0_1" index="1" disallow="pedestrian tram rail_urban rail rail_electric rail_fast ship container cable_car subway aircraft wheelchair scooter drone" speed="27.78" length="0.29" shape="1819.23,1739.47 1819.17,1739.19"/>
        <lane id=":11836845443_0_2" index="2" disallow="pedestrian tram rail_urban rail rail_electric rail_fast ship container cable_car subway aircraft wheelchair scooter drone" speed="27.78" length="0.29" shape="1822.37,1738.87 1822.30,1738.54"/>
    </edge>
    <edge id=":11836845451_0" function="internal">
        <lane id=":11836845451_0_0" index="0" disallow="pedestrian tram rail_urban rail rail_electric rail_fast ship container cable_car subway aircraft wheelchair scooter drone" speed="27.78" length="6.40" shape="1818.33,1678.43 1819.54,1684.76"/>
        <lane id=":11836845451_0_1" index="1" disallow="pedestrian tram rail_urban rail rail_electric rail_fast ship container cable_car subway aircraft wheelchair scooter drone" speed="27.78" length="6.40" shape="1815.19,1679.05 1816.39,1685.34"/>
        <lane id=":11836845451_0_2" index="2" disallow="pedestrian tram rail_urban rail rail_electric rail_fast ship container cable_car subway aircraft wheelchair scooter drone" speed="27.78" length="6.40" shape="1812.05,1679.66 1813.24,1685.92"/>
    </edge>
    <edge id=":11836845452_0" function="internal">
        <lane id=":11836845452_0_0" index="0" disallow="pedestrian tram rail_urban rail rail_electric rail_fast ship container cable_car subway aircraft wheelchair scooter drone" speed="27.78" length="5.14" shape="1804.91,1686.53 1803.84,1681.43"/>
        <lane id=":11836845452_0_1" index="1" disallow="pedestrian tram rail_urban rail rail_electric rail_fast ship container cable_car subway aircraft wheelchair scooter drone" speed="27.78" length="5.14" shape="1808.04,1685.85 1806.99,1680.82"/>
        <lane id=":11836845452_0_2" index="2" disallow="pedestrian tram rail_urban rail rail_electric rail_fast ship container cable_car subway aircraft wheelchair scooter drone" speed="27.78" length="5.14" shape="1811.16,1685.17 1810.13,1680.21"/>
    </edge>
    <edge id=":11862058742_0" function="internal">
        <lane id=":11862058742_0_0" index="0" disallow="pedestrian tram rail_urban rail rail_electric rail_fast ship container cable_car subway aircraft wheelchair scooter drone" speed="18.05" length="10.73" shape="1238.75,2227.54 1236.42,2225.35 1234.57,2224.07 1232.54,2223.16 1229.68,2222.07"/>
    </edge>
    <edge id=":11862058742_1" function="internal">
        <lane id=":11862058742_1_0" index="0" disallow="tram rail_urban rail rail_electric rail_fast ship container cable_car subway aircraft wheelchair scooter drone" speed="13.89" length="11.01" shape="1238.75,2227.54 1230.61,2220.29"/>
        <lane id=":11862058742_1_1" index="1" disallow="tram rail_urban rail rail_electric rail_fast ship container cable_car subway aircraft wheelchair scooter drone" speed="13.89" length="11.01" shape="1241.03,2225.30 1232.73,2217.89"/>
    </edge>
    <edge id=":11862058743_0" function="internal">
        <lane id=":11862058743_0_0" index="0" disallow="tram rail_urban rail rail_electric rail_fast ship container cable_car subway aircraft wheelchair scooter drone" speed="13.89" length="1.36" shape="1230.46,2220.16 1231.44,2221.31"/>
        <lane id=":11862058743_0_1" index="1" disallow="tram rail_urban rail rail_electric rail_fast ship container cable_car subway aircraft wheelchair scooter drone" speed="13.89" length="1.36" shape="1232.58,2217.76 1233.30,2218.71"/>
    </edge>
    <edge id=":11862058761_0" function="internal">
        <lane id=":11862058761_0_0" index="0" allow="tram" speed="13.89" length="5.10" shape="1433.34,1700.47 1428.69,1698.39"/>
    </edge>
    <edge id=":11862058762_0" function="internal">
        <lane id=":11862058762_0_0" index="0" allow="tram" speed="13.89" length="5.08" shape="1431.84,1704.07 1427.21,1701.98"/>
    </edge>
    <edge id=":11862058764_0" function="internal">
        <lane id=":11862058764_0_0" index="0" disallow="tram rail_urban rail rail_electric rail_fast ship container cable_car subway aircraft wheelchair scooter drone" speed="22.22" length="4.00" shape="1451.65,1694.05 1450.04,1697.72"/>
        <lane id=":11862058764_0_1" index="1" disallow="tram rail_urban rail rail_electric rail_fast ship container cable_car subway aircraft wheelchair scooter drone" speed="22.22" length="4.00" shape="1448.71,1692.77 1447.11,1696.42"/>
    </edge>
    <edge id=":11862058764_2" function="internal">
        <lane id=":11862058764_2_0" index="0" disallow="tram rail_urban rail rail_electric rail_fast ship container cable_car subway aircraft wheelchair scooter drone" speed="22.22" length="3.96" shape="1441.26,1693.83 1442.85,1690.21"/>
        <lane id=":11862058764_2_1" index="1" disallow="tram rail_urban rail rail_electric rail_fast ship container cable_car subway aircraft wheelchair scooter drone" speed="22.22" length="3.96" shape="1444.18,1695.13 1445.78,1691.49"/>
    </edge>
    <edge id=":11862348942_0" function="internal">
        <lane id=":11862348942_0_0" index="0" disallow="tram rail_urban rail rail_electric rail_fast ship container cable_car subway aircraft wheelchair scooter drone" speed="13.89" length="0.10" shape="1505.96,2495.97 1505.96,2495.97"/>
        <lane id=":11862348942_0_1" index="1" disallow="tram rail_urban rail rail_electric rail_fast ship container cable_car subway aircraft wheelchair scooter drone" speed="13.89" length="0.10" shape="1503.04,2494.69 1503.04,2494.69"/>
    </edge>
    <edge id=":11862350440_0" function="internal">
        <lane id=":11862350440_0_0" index="0" disallow="tram rail_urban rail rail_electric rail_fast ship container cable_car subway aircraft wheelchair scooter drone" speed="27.78" length="0.10" shape="1529.18,2526.84 1529.18,2526.84"/>
        <lane id=":11862350440_0_1" index="1" disallow="tram rail_urban rail rail_electric rail_fast ship container cable_car subway aircraft wheelchair scooter drone" speed="27.78" length="0.10" shape="1529.78,2529.98 1529.78,2529.98"/>
    </edge>
    <edge id=":11862350445_0" function="internal">
        <lane id=":11862350445_0_0" index="0" disallow="tram rail_urban rail rail_electric rail_fast ship container cable_car subway aircraft wheelchair scooter drone" speed="13.89" length="0.30" shape="1511.04,2521.10 1510.84,2520.88"/>
        <lane id=":11862350445_0_1" index="1" disallow="tram rail_urban rail rail_electric rail_fast ship container cable_car subway aircraft wheelchair scooter drone" speed="13.89" length="0.30" shape="1513.37,2518.90 1513.16,2518.68"/>
    </edge>
    <edge id=":11868239856_0" function="internal">
        <lane id=":11868239856_0_0" index="0" disallow="tram rail_urban rail rail_electric rail_fast ship container cable_car subway aircraft wheelchair scooter drone" speed="13.89" length="0.30" shape="1774.31,1721.20 1774.42,1720.92"/>
        <lane id=":11868239856_0_1" index="1" disallow="tram rail_urban rail rail_electric rail_fast ship container cable_car subway aircraft wheelchair scooter drone" speed="13.89" length="0.30" shape="1777.26,1722.44 1777.37,1722.16"/>
    </edge>
    <edge id=":11868239859_0" function="internal">
        <lane id=":11868239859_0_0" index="0" disallow="tram rail_urban rail rail_electric rail_fast ship container cable_car subway aircraft wheelchair scooter drone" speed="13.89" length="0.10" shape="1778.90,1710.22 1778.90,1710.22"/>
        <lane id=":11868239859_0_1" index="1" disallow="tram rail_urban rail rail_electric rail_fast ship container cable_car subway aircraft wheelchair scooter drone" speed="13.89" length="0.10" shape="1781.86,1711.46 1781.86,1711.46"/>
    </edge>
    <edge id=":11868239863_0" function="internal">
        <lane id=":11868239863_0_0" index="0" disallow="pedestrian tram rail_urban rail rail_electric rail_fast ship container cable_car subway aircraft wheelchair scooter drone" speed="27.78" length="0.30" shape="1811.90,1719.85 1811.83,1719.54"/>
        <lane id=":11868239863_0_1" index="1" disallow="pedestrian tram rail_urban rail rail_electric rail_fast ship container cable_car subway aircraft wheelchair scooter drone" speed="27.78" length="0.30" shape="1815.03,1719.20 1814.97,1718.90"/>
        <lane id=":11868239863_0_2" index="2" disallow="pedestrian tram rail_urban rail rail_electric rail_fast ship container cable_car subway aircraft wheelchair scooter drone" speed="27.78" length="0.30" shape="1818.16,1718.55 1818.11,1718.26"/>
    </edge>
    <edge id=":11873889658_0" function="internal">
        <lane id=":11873889658_0_0" index="0" disallow="tram rail_urban rail rail_electric rail_fast ship container cable_car subway aircraft wheelchair scooter drone" speed="13.89" length="0.30" shape="1275.24,2109.05 1274.96,2108.93"/>
    </edge>
    <edge id=":1611948588_0" function="internal">
        <lane id=":1611948588_0_0" index="0" disallow="tram rail_urban rail rail_electric rail_fast ship container cable_car subway aircraft wheelchair scooter drone" speed="13.89" length="14.40" shape="1811.89,2185.67 1808.83,2171.59"/>
    </edge>
    <edge id=":1611948588_1" function="internal">
        <lane id=":1611948588_1_0" index="0" disallow="tram rail_urban rail rail_electric rail_fast ship container cable_car subway aircraft wheelchair scooter drone" speed="7.98" length="4.08" shape="1811.89,2185.67 1811.60,2181.77 1811.66,2181.61"/>
    </edge>
    <edge id=":1611948588_2" function="internal">
        <lane id=":1611948588_2_0" index="0" disallow="tram rail_urban rail rail_electric rail_fast ship container cable_car subway aircraft wheelchair scooter drone" speed="3.65" length="1.44" shape="1811.89,2185.67 1812.41,2184.32"/>
    </edge>
    <edge id=":1611948588_9" function="internal">
        <lane id=":1611948588_9_0" index="0" disallow="tram rail_urban rail rail_electric rail_fast ship container cable_car subway aircraft wheelchair scooter drone" speed="7.98" length="10.16" shape="1811.66,2181.61 1812.64,2178.73 1815.00,2176.55 1818.68,2175.23"/>
    </edge>
    <edge id=":1611948588_10" function="internal">
        <lane id=":1611948588_10_0" index="0" disallow="tram rail_urban rail rail_electric rail_fast ship container cable_car subway aircraft wheelchair scooter drone" speed="3.65" length="3.23" shape="1812.41,2184.32 1813.11,2183.76 1813.98,2183.98 1815.01,2184.99"/>
    </edge>
    <edge id=":1611948588_3" function="internal">
        <lane id=":1611948588_3_0" index="0" disallow="tram rail_urban rail rail_electric rail_fast ship container cable_car subway aircraft wheelchair scooter drone" speed="6.48" length="9.03" shape="1819.32,2178.37 1816.99,2179.20 1815.49,2180.59 1814.83,2182.51 1815.01,2184.99"/>
    </edge>
    <edge id=":1611948588_4" function="internal">
        <lane id=":1611948588_4_0" index="0" disallow="tram rail_urban rail rail_electric rail_fast ship container cable_car subway aircraft wheelchair scooter drone" speed="8.04" length="14.21" shape="1819.32,2178.37 1815.43,2178.61 1812.38,2177.56 1810.18,2175.22 1808.83,2171.59"/>
    </edge>
    <edge id=":1611948588_5" function="internal">
        <lane id=":1611948588_5_0" index="0" disallow="tram rail_urban rail rail_electric rail_fast ship container cable_car subway aircraft wheelchair scooter drone" speed="3.65" length="4.67" shape="1819.32,2178.37 1817.99,2177.83 1817.44,2177.12 1817.67,2176.26 1818.68,2175.23"/>
    </edge>
    <edge id=":1611948588_6" function="internal">
        <lane id=":1611948588_6_0" index="0" disallow="tram rail_urban rail rail_electric rail_fast ship container cable_car subway aircraft wheelchair scooter drone" speed="6.56" length="9.10" shape="1811.95,2170.91 1812.82,2173.23 1814.23,2174.72 1816.18,2175.39 1818.68,2175.23"/>
    </edge>
    <edge id=":1611948588_7" function="internal">
        <lane id=":1611948588_7_0" index="0" disallow="tram rail_urban rail rail_electric rail_fast ship container cable_car subway aircraft wheelchair scooter drone" speed="13.89" length="14.40" shape="1811.95,2170.91 1815.01,2184.99"/>
    </edge>
    <edge id=":1611948588_8" function="internal">
        <lane id=":1611948588_8_0" index="0" disallow="tram rail_urban rail rail_electric rail_fast ship container cable_car subway aircraft wheelchair scooter drone" speed="3.65" length="1.44" shape="1811.95,2170.91 1811.43,2172.26"/>
    </edge>
    <edge id=":1611948588_11" function="internal">
        <lane id=":1611948588_11_0" index="0" disallow="tram rail_urban rail rail_electric rail_fast ship container cable_car subway aircraft wheelchair scooter drone" speed="3.65" length="3.23" shape="1811.43,2172.26 1810.73,2172.82 1809.86,2172.60 1808.83,2171.59"/>
    </edge>
    <edge id=":1653197146_0" function="internal">
        <lane id=":1653197146_0_0" index="0" disallow="pedestrian tram rail_urban rail rail_electric rail_fast ship container cable_car subway aircraft wheelchair scooter drone" speed="7.73" length="8.58" shape="1833.55,1866.90 1835.27,1865.61 1836.46,1863.98 1837.12,1862.01 1837.25,1859.68"/>
        <lane id=":1653197146_0_1" index="1" disallow="pedestrian tram rail_urban rail rail_electric rail_fast ship container cable_car subway aircraft wheelchair scooter drone" speed="8.45" length="10.38" shape="1833.55,1866.90 1836.64,1864.96 1838.82,1863.11 1840.09,1861.35 1840.46,1859.68"/>
        <lane id=":1653197146_0_2" index="2" disallow="pedestrian tram rail_urban rail rail_electric rail_fast ship container cable_car subway aircraft wheelchair scooter drone" speed="9.24" length="12.55" shape="1833.55,1866.90 1838.01,1864.31 1841.18,1862.24 1843.06,1860.70 1843.66,1859.68"/>
    </edge>
    <edge id=":1653197146_3" function="internal">
        <lane id=":1653197146_3_0" index="0" disallow="pedestrian tram rail_urban rail rail_electric rail_fast ship container cable_car subway aircraft wheelchair scooter drone" speed="14.98" length="13.41" shape="1833.55,1866.90 1837.32,1864.97 1840.16,1864.14 1843.15,1864.10 1847.40,1864.56"/>
        <lane id=":1653197146_3_1" index="1" disallow="pedestrian tram rail_urban rail rail_electric rail_fast ship container cable_car subway aircraft wheelchair scooter drone" speed="14.46" length="13.41" shape="1834.48,1870.04 1837.98,1868.24 1840.62,1867.43 1843.40,1867.37 1847.35,1867.77"/>
        <lane id=":1653197146_3_2" index="2" disallow="pedestrian tram rail_urban rail rail_electric rail_fast ship container cable_car subway aircraft wheelchair scooter drone" speed="10.84" length="13.41" shape="1835.53,1873.27 1837.57,1871.92 1840.22,1871.09 1843.46,1870.77 1847.31,1870.99"/>
    </edge>
    <edge id=":1653197148_0" function="internal">
        <lane id=":1653197148_0_0" index="0" disallow="pedestrian tram rail_urban rail rail_electric rail_fast ship container cable_car subway aircraft wheelchair scooter drone" speed="7.31" length="7.95" shape="1824.70,1886.36 1824.41,1884.53 1823.55,1882.93 1822.12,1881.56 1820.11,1880.43"/>
    </edge>
    <edge id=":1653197148_1" function="internal">
        <lane id=":1653197148_1_0" index="0" disallow="pedestrian tram rail_urban rail rail_electric rail_fast ship container cable_car subway aircraft wheelchair scooter drone" speed="27.78" length="4.65" shape="1824.70,1886.36 1824.79,1881.53"/>
        <lane id=":1653197148_1_1" index="1" disallow="pedestrian tram rail_urban rail rail_electric rail_fast ship container cable_car subway aircraft wheelchair scooter drone" speed="27.78" length="4.65" shape="1827.90,1886.36 1827.99,1881.70"/>
        <lane id=":1653197148_1_2" index="2" disallow="pedestrian tram rail_urban rail rail_electric rail_fast ship container cable_car subway aircraft wheelchair scooter drone" speed="27.78" length="4.65" shape="1831.10,1886.36 1831.18,1881.87"/>
    </edge>
    <edge id=":1655825810_0" function="internal">
        <lane id=":1655825810_0_0" index="0" disallow="tram rail_urban rail rail_electric rail_fast ship container cable_car subway aircraft wheelchair scooter drone" speed="22.22" length="14.33" shape="1380.42,1687.83 1367.26,1682.15"/>
    </edge>
    <edge id=":1655825810_1" function="internal">
        <lane id=":1655825810_1_0" index="0" disallow="tram rail_urban rail rail_electric rail_fast ship container cable_car subway aircraft wheelchair scooter drone" speed="6.51" length="9.00" shape="1370.14,1689.51 1370.79,1687.13 1370.53,1685.11 1369.35,1683.45 1367.26,1682.15"/>
    </edge>
    <edge id=":1655825813_0" function="internal">
        <lane id=":1655825813_0_0" index="0" disallow="tram rail_urban rail rail_electric rail_fast ship container cable_car subway aircraft wheelchair scooter drone" speed="6.18" length="7.96" shape="1447.38,1716.32 1445.21,1715.71 1443.39,1715.89 1441.91,1716.87 1440.78,1718.64"/>
    </edge>
    <edge id=":1655825813_1" function="internal">
        <lane id=":1655825813_1_0" index="0" disallow="tram rail_urban rail rail_electric rail_fast ship container cable_car subway aircraft wheelchair scooter drone" speed="22.22" length="19.61" shape="1447.38,1716.32 1429.38,1708.54"/>
    </edge>
    <edge id=":1655825813_2" function="internal">
        <lane id=":1655825813_2_0" index="0" disallow="tram rail_urban rail rail_electric rail_fast ship container cable_car subway aircraft wheelchair scooter drone" speed="7.61" length="12.86" shape="1447.38,1716.32 1442.85,1714.13 1439.83,1712.08 1438.32,1710.18 1438.31,1708.43"/>
    </edge>
    <edge id=":1655825813_3" function="internal">
        <lane id=":1655825813_3_0" index="0" disallow="tram rail_urban rail rail_electric rail_fast ship container cable_car subway aircraft wheelchair scooter drone" speed="22.22" length="8.33" shape="1444.16,1711.02 1440.78,1718.64"/>
        <lane id=":1655825813_3_1" index="1" disallow="tram rail_urban rail rail_electric rail_fast ship container cable_car subway aircraft wheelchair scooter drone" speed="22.22" length="8.33" shape="1441.24,1709.72 1437.85,1717.33"/>
    </edge>
    <edge id=":1655825813_5" function="internal">
        <lane id=":1655825813_5_0" index="0" disallow="tram rail_urban rail rail_electric rail_fast ship container cable_car subway aircraft wheelchair scooter drone" speed="7.63" length="1.75" shape="1441.24,1709.72 1439.94,1710.90"/>
    </edge>
    <edge id=":1655825813_6" function="internal">
        <lane id=":1655825813_6_0" index="0" disallow="tram rail_urban rail rail_electric rail_fast ship container cable_car subway aircraft wheelchair scooter drone" speed="3.65" length="1.44" shape="1441.24,1709.72 1440.02,1710.50"/>
    </edge>
    <edge id=":1655825813_11" function="internal">
        <lane id=":1655825813_11_0" index="0" disallow="tram rail_urban rail rail_electric rail_fast ship container cable_car subway aircraft wheelchair scooter drone" speed="7.63" length="10.98" shape="1439.94,1710.90 1437.53,1711.10 1434.01,1710.31 1429.38,1708.54"/>
    </edge>
    <edge id=":1655825813_12" function="internal">
        <lane id=":1655825813_12_0" index="0" disallow="tram rail_urban rail rail_electric rail_fast ship container cable_car subway aircraft wheelchair scooter drone" speed="3.65" length="3.23" shape="1440.02,1710.50 1439.13,1710.54 1438.56,1709.85 1438.31,1708.43"/>
    </edge>
    <edge id=":1655825813_7" function="internal">
        <lane id=":1655825813_7_0" index="0" disallow="tram rail_urban rail rail_electric rail_fast ship container cable_car subway aircraft wheelchair scooter drone" speed="6.04" length="7.68" shape="1432.01,1714.73 1432.55,1712.76 1432.29,1711.07 1431.24,1709.66 1429.38,1708.54"/>
    </edge>
    <edge id=":1655825813_8" function="internal">
        <lane id=":1655825813_8_0" index="0" disallow="tram rail_urban rail rail_electric rail_fast ship container cable_car subway aircraft wheelchair scooter drone" speed="22.22" length="8.32" shape="1432.01,1714.73 1435.39,1707.13"/>
        <lane id=":1655825813_8_1" index="1" disallow="tram rail_urban rail rail_electric rail_fast ship container cable_car subway aircraft wheelchair scooter drone" speed="22.22" length="8.32" shape="1434.93,1716.03 1438.31,1708.43"/>
    </edge>
    <edge id=":1655825813_10" function="internal">
        <lane id=":1655825813_10_0" index="0" disallow="tram rail_urban rail rail_electric rail_fast ship container cable_car subway aircraft wheelchair scooter drone" speed="3.65" length="1.44" shape="1434.93,1716.03 1436.15,1715.26"/>
    </edge>
    <edge id=":1655825813_13" function="internal">
        <lane id=":1655825813_13_0" index="0" disallow="tram rail_urban rail rail_electric rail_fast ship container cable_car subway aircraft wheelchair scooter drone" speed="3.65" length="3.23" shape="1436.15,1715.26 1437.04,1715.22 1437.61,1715.91 1437.85,1717.33"/>
    </edge>
    <edge id=":1655825822_0" function="internal">
        <lane id=":1655825822_0_0" index="0" disallow="tram rail_urban rail rail_electric rail_fast ship container cable_car subway aircraft wheelchair scooter drone" speed="22.22" length="11.09" shape="1620.81,1793.84 1610.72,1789.26"/>
    </edge>
    <edge id=":1655825822_1" function="internal">
        <lane id=":1655825822_1_0" index="0" disallow="tram rail_urban rail rail_electric rail_fast ship container cable_car subway aircraft wheelchair scooter drone" speed="5.68" length="6.50" shape="1614.78,1793.65 1614.86,1792.58 1614.22,1791.50 1612.84,1790.39 1610.72,1789.26"/>
    </edge>
    <edge id=":1655825826_0" function="internal">
        <lane id=":1655825826_0_0" index="0" disallow="tram rail_urban rail rail_electric rail_fast ship container cable_car subway aircraft wheelchair scooter drone" speed="22.22" length="14.44" shape="1509.32,1743.01 1496.12,1737.18"/>
    </edge>
    <edge id=":1655825826_1" function="internal">